<?xml version="1.0" encoding="utf-8"?>
<!DOCTYPE population SYSTEM "http://www.matsim.org/files/dtd/population_v6.dtd">

<population>

	<attributes>
		<attribute name="coordinateReferenceSystem" class="java.lang.String">Atlantis</attribute>
	</attributes>


<!-- ====================================================================== -->

	<person id="1">
		<attributes>
			<attribute name="employed" class="java.lang.Boolean">false</attribute>
		</attributes>
		<plan selected="yes">
			<activity type="h" link="1112" x="890.0" y="685.0" end_time="07:18:16" >
			</activity>
			<leg mode="car" dep_time="07:18:16" trav_time="00:01:40">
				<attributes>
					<attribute name="routingMode" class="java.lang.String">car</attribute>
				</attributes>
				<route type="links" start_link="1112" end_link="2223" trav_time="00:01:40" distance="1200.0" vehicleRefId="null">1112 1222 2223</route>
			</leg>
			<activity type="w" link="2223" x="1802.0" y="2782.0" end_time="17:43:36" >
			</activity>
			<leg mode="car" dep_time="17:43:36" trav_time="00:05:00">
				<attributes>
					<attribute name="routingMode" class="java.lang.String">car</attribute>
				</attributes>
				<route type="links" start_link="2223" end_link="1112" trav_time="00:05:00" distance="3600.0" vehicleRefId="null">2223 2322 2221 2111 1112</route>
			</leg>
			<activity type="h" link="1112" x="890.0" y="685.0" >
			</activity>
		</plan>

	</person>

<!-- ====================================================================== -->

	<person id="10">
		<attributes>
			<attribute name="employed" class="java.lang.Boolean">false</attribute>
		</attributes>
		<plan selected="yes">
			<activity type="h" link="1112" x="689.0" y="703.0" end_time="07:33:16" >
			</activity>
			<leg mode="car" dep_time="07:33:16" trav_time="00:05:00">
				<attributes>
					<attribute name="routingMode" class="java.lang.String">car</attribute>
				</attributes>
				<route type="links" start_link="1112" end_link="3141" trav_time="00:05:00" distance="3600.0" vehicleRefId="null">1112 1222 2232 3231 3141</route>
			</leg>
			<activity type="w" link="3141" x="3869.0" y="1093.0" end_time="17:47:05" >
			</activity>
			<leg mode="car" dep_time="17:47:05" trav_time="00:00:00">
				<attributes>
					<attribute name="routingMode" class="java.lang.String">car</attribute>
				</attributes>
				<route type="links" start_link="3141" end_link="3141" trav_time="00:00:00" distance="0.0" vehicleRefId="null">3141</route>
			</leg>
			<activity type="s" link="3141" x="3605.0" y="735.0" end_time="17:54:27" >
			</activity>
			<leg mode="car" dep_time="17:54:27" trav_time="00:05:00">
				<attributes>
					<attribute name="routingMode" class="java.lang.String">car</attribute>
				</attributes>
				<route type="links" start_link="3141" end_link="1112" trav_time="00:05:00" distance="3600.0" vehicleRefId="null">3141 4131 3121 2111 1112</route>
			</leg>
			<activity type="h" link="1112" x="689.0" y="703.0" >
			</activity>
		</plan>

	</person>

<!-- ====================================================================== -->

	<person id="100">
		<attributes>
			<attribute name="employed" class="java.lang.Boolean">false</attribute>
		</attributes>
		<plan selected="yes">
			<activity type="h" link="1112" x="811.0" y="1440.0" end_time="07:03:59" >
			</activity>
			<leg mode="car" dep_time="07:03:59" trav_time="00:03:20">
				<attributes>
					<attribute name="routingMode" class="java.lang.String">car</attribute>
				</attributes>
				<route type="links" start_link="1112" end_link="2324" trav_time="00:03:20" distance="2400.0" vehicleRefId="null">1112 1222 2223 2324</route>
			</leg>
			<activity type="w" link="2324" x="1695.0" y="3329.0" end_time="17:41:28" >
			</activity>
			<leg mode="car" dep_time="17:41:28" trav_time="00:06:40">
				<attributes>
					<attribute name="routingMode" class="java.lang.String">car</attribute>
				</attributes>
				<route type="links" start_link="2324" end_link="1112" trav_time="00:06:40" distance="4800.0" vehicleRefId="null">2324 2423 2322 2221 2111 1112</route>
			</leg>
			<activity type="h" link="1112" x="811.0" y="1440.0" >
			</activity>
		</plan>

	</person>

<!-- ====================================================================== -->

	<person id="101">
		<attributes>
			<attribute name="employed" class="java.lang.Boolean">false</attribute>
		</attributes>
		<plan selected="yes">
			<activity type="h" link="1112" x="768.0" y="1343.0" end_time="07:18:23" >
			</activity>
			<leg mode="car" dep_time="07:18:23" trav_time="00:03:20">
				<attributes>
					<attribute name="routingMode" class="java.lang.String">car</attribute>
				</attributes>
				<route type="links" start_link="1112" end_link="2333" trav_time="00:03:20" distance="2400.0" vehicleRefId="null">1112 1222 2223 2333</route>
			</leg>
			<activity type="w" link="2333" x="2216.0" y="3031.0" end_time="17:40:42" >
			</activity>
			<leg mode="car" dep_time="17:40:42" trav_time="00:06:40">
				<attributes>
					<attribute name="routingMode" class="java.lang.String">car</attribute>
				</attributes>
				<route type="links" start_link="2333" end_link="1112" trav_time="00:06:40" distance="4800.0" vehicleRefId="null">2333 3332 3231 3121 2111 1112</route>
			</leg>
			<activity type="h" link="1112" x="768.0" y="1343.0" >
			</activity>
		</plan>

	</person>

<!-- ====================================================================== -->

	<person id="102">
		<attributes>
			<attribute name="employed" class="java.lang.Boolean">false</attribute>
		</attributes>
		<plan selected="yes">
			<activity type="h" link="1112" x="938.0" y="642.0" end_time="07:32:06" >
			</activity>
			<leg mode="walk" trav_time="00:08:27">
				<attributes>
					<attribute name="routingMode" class="java.lang.String">pt</attribute>
				</attributes>
				<route type="generic" start_link="1112" end_link="11" trav_time="undefined" distance="NaN"></route>
			</leg>
			<activity type="pt interaction" link="11" x="1050.0" y="1050.0" max_dur="00:00:00" >
			</activity>
			<leg mode="pt" trav_time="00:18:26">
				<attributes>
					<attribute name="routingMode" class="java.lang.String">pt</attribute>
				</attributes>
				<route type="default_pt" start_link="11" end_link="33" trav_time="undefined" distance="NaN">{"transitRouteId":"1to3","boardingTime":"undefined","transitLineId":"Blue Line","accessFacilityId":"1","egressFacilityId":"3"}</route>
			</leg>
			<activity type="pt interaction" link="33" x="3950.0" y="1050.0" max_dur="00:00:00" >
			</activity>
			<leg mode="walk" trav_time="00:07:24">
				<attributes>
					<attribute name="routingMode" class="java.lang.String">pt</attribute>
				</attributes>
				<route type="generic" start_link="33" end_link="3141" trav_time="undefined" distance="NaN"></route>
			</leg>
			<activity type="w" link="3141" x="3619.0" y="1217.0" end_time="17:27:24" >
			</activity>
			<leg mode="walk" trav_time="00:04:25">
				<attributes>
					<attribute name="routingMode" class="java.lang.String">pt</attribute>
				</attributes>
				<route type="generic" start_link="3141" end_link="4142" trav_time="undefined" distance="NaN"></route>
			</leg>
			<activity type="s" link="4142" x="3840.0" y="1205.0" end_time="18:25:10" >
			</activity>
			<leg mode="walk" trav_time="00:03:48">
				<attributes>
					<attribute name="routingMode" class="java.lang.String">pt</attribute>
				</attributes>
				<route type="generic" start_link="4142" end_link="33" trav_time="undefined" distance="NaN"></route>
			</leg>
			<activity type="pt interaction" link="33" x="3950.0" y="1050.0" max_dur="00:00:00" >
			</activity>
			<leg mode="pt" trav_time="00:10:01">
				<attributes>
					<attribute name="routingMode" class="java.lang.String">pt</attribute>
				</attributes>
				<route type="default_pt" start_link="33" end_link="11" trav_time="undefined" distance="NaN">{"transitRouteId":"3to1","boardingTime":"undefined","transitLineId":"Blue Line","accessFacilityId":"3","egressFacilityId":"1"}</route>
			</leg>
			<activity type="pt interaction" link="11" x="1050.0" y="1050.0" max_dur="00:00:00" >
			</activity>
			<leg mode="walk" trav_time="00:08:27">
				<attributes>
					<attribute name="routingMode" class="java.lang.String">pt</attribute>
				</attributes>
				<route type="generic" start_link="11" end_link="1112" trav_time="undefined" distance="NaN"></route>
			</leg>
			<activity type="h" link="1112" x="938.0" y="642.0" >
			</activity>
		</plan>

	</person>

<!-- ====================================================================== -->

	<person id="103">
		<attributes>
			<attribute name="employed" class="java.lang.Boolean">false</attribute>
		</attributes>
		<plan selected="yes">
			<activity type="h" link="1112" x="653.0" y="1442.0" end_time="07:57:03" >
			</activity>
			<leg mode="walk" trav_time="00:11:09">
				<attributes>
					<attribute name="routingMode" class="java.lang.String">pt</attribute>
				</attributes>
				<route type="generic" start_link="1112" end_link="11" trav_time="undefined" distance="NaN"></route>
			</leg>
			<activity type="pt interaction" link="11" x="1050.0" y="1050.0" max_dur="00:00:00" >
			</activity>
			<leg mode="pt" trav_time="00:10:07">
				<attributes>
					<attribute name="routingMode" class="java.lang.String">pt</attribute>
				</attributes>
				<route type="default_pt" start_link="11" end_link="12" trav_time="undefined" distance="NaN">{"transitRouteId":"1to3","boardingTime":"undefined","transitLineId":"Blue Line","accessFacilityId":"1","egressFacilityId":"2a"}</route>
			</leg>
			<activity type="pt interaction" link="12" x="2050.0" y="2940.0" max_dur="00:00:00" >
			</activity>
			<leg mode="walk" trav_time="00:04:46">
				<attributes>
					<attribute name="routingMode" class="java.lang.String">pt</attribute>
				</attributes>
				<route type="generic" start_link="12" end_link="2223" trav_time="undefined" distance="NaN"></route>
			</leg>
			<activity type="w" link="2223" x="1923.0" y="2738.0" end_time="17:38:00" >
			</activity>
			<leg mode="walk" trav_time="00:06:30">
				<attributes>
					<attribute name="routingMode" class="java.lang.String">pt</attribute>
				</attributes>
				<route type="generic" start_link="2223" end_link="2324" trav_time="undefined" distance="NaN"></route>
			</leg>
			<activity type="s" link="2324" x="2021.0" y="3048.0" end_time="17:41:33" >
			</activity>
			<leg mode="walk" trav_time="00:01:51">
				<attributes>
					<attribute name="routingMode" class="java.lang.String">pt</attribute>
				</attributes>
				<route type="generic" start_link="2324" end_link="32" trav_time="undefined" distance="NaN"></route>
			</leg>
			<activity type="pt interaction" link="32" x="2050.0" y="2960.0" max_dur="00:00:00" >
			</activity>
			<leg mode="pt" trav_time="00:05:35">
				<attributes>
					<attribute name="routingMode" class="java.lang.String">pt</attribute>
				</attributes>
				<route type="default_pt" start_link="32" end_link="11" trav_time="undefined" distance="NaN">{"transitRouteId":"3to1","boardingTime":"undefined","transitLineId":"Blue Line","accessFacilityId":"2b","egressFacilityId":"1"}</route>
			</leg>
			<activity type="pt interaction" link="11" x="1050.0" y="1050.0" max_dur="00:00:00" >
			</activity>
			<leg mode="walk" trav_time="00:11:09">
				<attributes>
					<attribute name="routingMode" class="java.lang.String">pt</attribute>
				</attributes>
				<route type="generic" start_link="11" end_link="1112" trav_time="undefined" distance="NaN"></route>
			</leg>
			<activity type="h" link="1112" x="653.0" y="1442.0" >
			</activity>
		</plan>

	</person>

<!-- ====================================================================== -->

	<person id="104">
		<attributes>
			<attribute name="employed" class="java.lang.Boolean">false</attribute>
		</attributes>
		<plan selected="yes">
			<activity type="h" link="1112" x="842.0" y="914.0" end_time="07:30:53" >
			</activity>
			<leg mode="walk" trav_time="00:04:58">
				<attributes>
					<attribute name="routingMode" class="java.lang.String">pt</attribute>
				</attributes>
				<route type="generic" start_link="1112" end_link="11" trav_time="undefined" distance="NaN"></route>
			</leg>
			<activity type="pt interaction" link="11" x="1050.0" y="1050.0" max_dur="00:00:00" >
			</activity>
			<leg mode="pt" trav_time="00:13:08">
				<attributes>
					<attribute name="routingMode" class="java.lang.String">pt</attribute>
				</attributes>
				<route type="default_pt" start_link="11" end_link="33" trav_time="undefined" distance="NaN">{"transitRouteId":"1to3","boardingTime":"undefined","transitLineId":"Blue Line","accessFacilityId":"1","egressFacilityId":"3"}</route>
			</leg>
			<activity type="pt interaction" link="33" x="3950.0" y="1050.0" max_dur="00:00:00" >
			</activity>
			<leg mode="walk" trav_time="00:08:07">
				<attributes>
					<attribute name="routingMode" class="java.lang.String">pt</attribute>
				</attributes>
				<route type="generic" start_link="33" end_link="3141" trav_time="undefined" distance="NaN"></route>
			</leg>
			<activity type="w" link="3141" x="3583.0" y="875.0" end_time="17:29:08" >
			</activity>
			<leg mode="walk" trav_time="00:08:07">
				<attributes>
					<attribute name="routingMode" class="java.lang.String">pt</attribute>
				</attributes>
				<route type="generic" start_link="3141" end_link="33" trav_time="undefined" distance="NaN"></route>
			</leg>
			<activity type="pt interaction" link="33" x="3950.0" y="1050.0" max_dur="00:00:00" >
			</activity>
			<leg mode="pt" trav_time="00:07:44">
				<attributes>
					<attribute name="routingMode" class="java.lang.String">pt</attribute>
				</attributes>
				<route type="default_pt" start_link="33" end_link="32" trav_time="undefined" distance="NaN">{"transitRouteId":"3to1","boardingTime":"undefined","transitLineId":"Blue Line","accessFacilityId":"3","egressFacilityId":"2b"}</route>
			</leg>
			<activity type="pt interaction" link="32" x="2050.0" y="2960.0" max_dur="00:00:00" >
			</activity>
			<leg mode="walk" trav_time="00:05:03">
				<attributes>
					<attribute name="routingMode" class="java.lang.String">pt</attribute>
				</attributes>
				<route type="generic" start_link="32" end_link="1323" trav_time="undefined" distance="NaN"></route>
			</leg>
			<activity type="s" link="1323" x="1807.0" y="3029.0" end_time="18:18:40" >
			</activity>
			<leg mode="walk" trav_time="00:05:03">
				<attributes>
					<attribute name="routingMode" class="java.lang.String">pt</attribute>
				</attributes>
				<route type="generic" start_link="1323" end_link="32" trav_time="undefined" distance="NaN"></route>
			</leg>
			<activity type="pt interaction" link="32" x="2050.0" y="2960.0" max_dur="00:00:00" >
			</activity>
			<leg mode="pt" trav_time="00:05:16">
				<attributes>
					<attribute name="routingMode" class="java.lang.String">pt</attribute>
				</attributes>
				<route type="default_pt" start_link="32" end_link="11" trav_time="undefined" distance="NaN">{"transitRouteId":"3to1","boardingTime":"undefined","transitLineId":"Blue Line","accessFacilityId":"2b","egressFacilityId":"1"}</route>
			</leg>
			<activity type="pt interaction" link="11" x="1050.0" y="1050.0" max_dur="00:00:00" >
			</activity>
			<leg mode="walk" trav_time="00:04:58">
				<attributes>
					<attribute name="routingMode" class="java.lang.String">pt</attribute>
				</attributes>
				<route type="generic" start_link="11" end_link="1112" trav_time="undefined" distance="NaN"></route>
			</leg>
			<activity type="h" link="1112" x="842.0" y="914.0" >
			</activity>
		</plan>

	</person>

<!-- ====================================================================== -->

	<person id="105">
		<attributes>
			<attribute name="employed" class="java.lang.Boolean">false</attribute>
		</attributes>
		<plan selected="yes">
			<activity type="h" link="1112" x="1198.0" y="1300.0" end_time="07:50:14" >
			</activity>
			<leg mode="walk" trav_time="00:05:48">
				<attributes>
					<attribute name="routingMode" class="java.lang.String">pt</attribute>
				</attributes>
				<route type="generic" start_link="1112" end_link="11" trav_time="undefined" distance="NaN"></route>
			</leg>
			<activity type="pt interaction" link="11" x="1050.0" y="1050.0" max_dur="00:00:00" >
			</activity>
			<leg mode="pt" trav_time="00:07:17">
				<attributes>
					<attribute name="routingMode" class="java.lang.String">pt</attribute>
				</attributes>
				<route type="default_pt" start_link="11" end_link="12" trav_time="undefined" distance="NaN">{"transitRouteId":"1to3","boardingTime":"undefined","transitLineId":"Blue Line","accessFacilityId":"1","egressFacilityId":"2a"}</route>
			</leg>
			<activity type="pt interaction" link="12" x="2050.0" y="2940.0" max_dur="00:00:00" >
			</activity>
			<leg mode="walk" trav_time="00:07:57">
				<attributes>
					<attribute name="routingMode" class="java.lang.String">pt</attribute>
				</attributes>
				<route type="generic" start_link="12" end_link="2333" trav_time="undefined" distance="NaN"></route>
			</leg>
			<activity type="w" link="2333" x="2436.0" y="3036.0" end_time="17:11:43" >
			</activity>
			<leg mode="walk" trav_time="00:17:56">
				<attributes>
					<attribute name="routingMode" class="java.lang.String">pt</attribute>
				</attributes>
				<route type="generic" start_link="2333" end_link="1323" trav_time="undefined" distance="NaN"></route>
			</leg>
			<activity type="s" link="1323" x="1562.0" y="3237.0" end_time="17:48:28" >
			</activity>
			<leg mode="walk" trav_time="00:11:13">
				<attributes>
					<attribute name="routingMode" class="java.lang.String">pt</attribute>
				</attributes>
				<route type="generic" start_link="1323" end_link="32" trav_time="undefined" distance="NaN"></route>
			</leg>
			<activity type="pt interaction" link="32" x="2050.0" y="2960.0" max_dur="00:00:00" >
			</activity>
			<leg mode="pt" trav_time="00:09:18">
				<attributes>
					<attribute name="routingMode" class="java.lang.String">pt</attribute>
				</attributes>
				<route type="default_pt" start_link="32" end_link="11" trav_time="undefined" distance="NaN">{"transitRouteId":"3to1","boardingTime":"undefined","transitLineId":"Blue Line","accessFacilityId":"2b","egressFacilityId":"1"}</route>
			</leg>
			<activity type="pt interaction" link="11" x="1050.0" y="1050.0" max_dur="00:00:00" >
			</activity>
			<leg mode="walk" trav_time="00:05:48">
				<attributes>
					<attribute name="routingMode" class="java.lang.String">pt</attribute>
				</attributes>
				<route type="generic" start_link="11" end_link="1112" trav_time="undefined" distance="NaN"></route>
			</leg>
			<activity type="h" link="1112" x="1198.0" y="1300.0" >
			</activity>
		</plan>

	</person>

<!-- ====================================================================== -->

	<person id="106">
		<attributes>
			<attribute name="employed" class="java.lang.Boolean">false</attribute>
		</attributes>
		<plan selected="yes">
			<activity type="h" link="1121" x="1317.0" y="1308.0" end_time="07:56:50" >
			</activity>
			<leg mode="car" dep_time="07:56:50" trav_time="00:05:00">
				<attributes>
					<attribute name="routingMode" class="java.lang.String">car</attribute>
				</attributes>
				<route type="links" start_link="1121" end_link="1323" trav_time="00:05:00" distance="3600.0" vehicleRefId="null">1121 2122 2223 2313 1323</route>
			</leg>
			<activity type="w" link="1323" x="1894.0" y="2993.0" end_time="17:01:46" >
			</activity>
			<leg mode="car" dep_time="17:01:46" trav_time="00:05:00">
				<attributes>
					<attribute name="routingMode" class="java.lang.String">car</attribute>
				</attributes>
				<route type="links" start_link="1323" end_link="1121" trav_time="00:05:00" distance="3600.0" vehicleRefId="null">1323 2322 2221 2111 1121</route>
			</leg>
			<activity type="h" link="1121" x="1317.0" y="1308.0" >
			</activity>
		</plan>

	</person>

<!-- ====================================================================== -->

	<person id="107">
		<attributes>
			<attribute name="employed" class="java.lang.Boolean">false</attribute>
		</attributes>
		<plan selected="yes">
			<activity type="h" link="1121" x="1358.0" y="598.0" end_time="07:39:52" >
			</activity>
			<leg mode="car" dep_time="07:39:52" trav_time="00:05:00">
				<attributes>
					<attribute name="routingMode" class="java.lang.String">car</attribute>
				</attributes>
				<route type="links" start_link="1121" end_link="1323" trav_time="00:05:00" distance="3600.0" vehicleRefId="null">1121 2122 2223 2313 1323</route>
			</leg>
			<activity type="w" link="1323" x="1766.0" y="2924.0" end_time="17:49:02" >
			</activity>
			<leg mode="car" dep_time="17:49:02" trav_time="00:00:00">
				<attributes>
					<attribute name="routingMode" class="java.lang.String">car</attribute>
				</attributes>
				<route type="links" start_link="1323" end_link="2333" trav_time="00:00:00" distance="0.0" vehicleRefId="null">1323 2333</route>
			</leg>
			<activity type="s" link="2333" x="2320.0" y="2979.0" end_time="17:58:02" >
			</activity>
			<leg mode="car" dep_time="17:58:02" trav_time="00:06:40">
				<attributes>
					<attribute name="routingMode" class="java.lang.String">car</attribute>
				</attributes>
				<route type="links" start_link="2333" end_link="1121" trav_time="00:06:40" distance="4800.0" vehicleRefId="null">2333 3332 3231 3121 2111 1121</route>
			</leg>
			<activity type="h" link="1121" x="1358.0" y="598.0" >
			</activity>
		</plan>

	</person>

<!-- ====================================================================== -->

	<person id="108">
		<attributes>
			<attribute name="employed" class="java.lang.Boolean">false</attribute>
		</attributes>
		<plan selected="yes">
			<activity type="h" link="1112" x="618.0" y="987.0" end_time="07:15:14" >
			</activity>
			<leg mode="car" dep_time="07:15:14" trav_time="00:05:00">
				<attributes>
					<attribute name="routingMode" class="java.lang.String">car</attribute>
				</attributes>
				<route type="links" start_link="1112" end_link="3141" trav_time="00:05:00" distance="3600.0" vehicleRefId="null">1112 1222 2232 3231 3141</route>
			</leg>
			<activity type="w" link="3141" x="3869.0" y="746.0" end_time="17:32:13" >
			</activity>
			<leg mode="car" dep_time="17:32:13" trav_time="00:05:00">
				<attributes>
					<attribute name="routingMode" class="java.lang.String">car</attribute>
				</attributes>
				<route type="links" start_link="3141" end_link="1112" trav_time="00:05:00" distance="3600.0" vehicleRefId="null">3141 4131 3121 2111 1112</route>
			</leg>
			<activity type="h" link="1112" x="618.0" y="987.0" >
			</activity>
		</plan>

	</person>

<!-- ====================================================================== -->

	<person id="109">
		<attributes>
			<attribute name="employed" class="java.lang.Boolean">false</attribute>
		</attributes>
		<plan selected="yes">
			<activity type="h" link="1112" x="725.0" y="609.0" end_time="07:21:46" >
			</activity>
			<leg mode="walk" trav_time="00:10:57">
				<attributes>
					<attribute name="routingMode" class="java.lang.String">pt</attribute>
				</attributes>
				<route type="generic" start_link="1112" end_link="11" trav_time="undefined" distance="NaN"></route>
			</leg>
			<activity type="pt interaction" link="11" x="1050.0" y="1050.0" max_dur="00:00:00" >
			</activity>
			<leg mode="pt" trav_time="00:10:36">
				<attributes>
					<attribute name="routingMode" class="java.lang.String">pt</attribute>
				</attributes>
				<route type="default_pt" start_link="11" end_link="12" trav_time="undefined" distance="NaN">{"transitRouteId":"1to3","boardingTime":"undefined","transitLineId":"Blue Line","accessFacilityId":"1","egressFacilityId":"2a"}</route>
			</leg>
			<activity type="pt interaction" link="12" x="2050.0" y="2940.0" max_dur="00:00:00" >
			</activity>
			<leg mode="walk" trav_time="00:04:25">
				<attributes>
					<attribute name="routingMode" class="java.lang.String">pt</attribute>
				</attributes>
				<route type="generic" start_link="12" end_link="2223" trav_time="undefined" distance="NaN"></route>
			</leg>
			<activity type="w" link="2223" x="2134.0" y="2735.0" end_time="17:01:23" >
			</activity>
			<leg mode="walk" trav_time="00:04:48">
				<attributes>
					<attribute name="routingMode" class="java.lang.String">pt</attribute>
				</attributes>
				<route type="generic" start_link="2223" end_link="32" trav_time="undefined" distance="NaN"></route>
			</leg>
			<activity type="pt interaction" link="32" x="2050.0" y="2960.0" max_dur="00:00:00" >
			</activity>
			<leg mode="pt" trav_time="00:12:48">
				<attributes>
					<attribute name="routingMode" class="java.lang.String">pt</attribute>
				</attributes>
				<route type="default_pt" start_link="32" end_link="11" trav_time="undefined" distance="NaN">{"transitRouteId":"3to1","boardingTime":"undefined","transitLineId":"Blue Line","accessFacilityId":"2b","egressFacilityId":"1"}</route>
			</leg>
			<activity type="pt interaction" link="11" x="1050.0" y="1050.0" max_dur="00:00:00" >
			</activity>
			<leg mode="walk" trav_time="00:10:57">
				<attributes>
					<attribute name="routingMode" class="java.lang.String">pt</attribute>
				</attributes>
				<route type="generic" start_link="11" end_link="1112" trav_time="undefined" distance="NaN"></route>
			</leg>
			<activity type="h" link="1112" x="725.0" y="609.0" >
			</activity>
		</plan>

	</person>

<!-- ====================================================================== -->

	<person id="11">
		<attributes>
			<attribute name="employed" class="java.lang.Boolean">false</attribute>
		</attributes>
		<plan selected="yes">
			<activity type="h" link="1112" x="764.0" y="1021.0" end_time="07:36:00" >
			</activity>
			<leg mode="car" dep_time="07:36:00" trav_time="00:03:20">
				<attributes>
					<attribute name="routingMode" class="java.lang.String">car</attribute>
				</attributes>
				<route type="links" start_link="1112" end_link="2333" trav_time="00:03:20" distance="2400.0" vehicleRefId="null">1112 1222 2223 2333</route>
			</leg>
			<activity type="w" link="2333" x="2293.0" y="2744.0" end_time="17:56:24" >
			</activity>
			<leg mode="car" dep_time="17:56:24" trav_time="00:03:20">
				<attributes>
					<attribute name="routingMode" class="java.lang.String">car</attribute>
				</attributes>
				<route type="links" start_link="2333" end_link="2223" trav_time="00:03:20" distance="2400.0" vehicleRefId="null">2333 3323 2322 2223</route>
			</leg>
			<activity type="s" link="2223" x="1979.0" y="2879.0" end_time="18:18:17" >
			</activity>
			<leg mode="car" dep_time="18:18:17" trav_time="00:05:00">
				<attributes>
					<attribute name="routingMode" class="java.lang.String">car</attribute>
				</attributes>
				<route type="links" start_link="2223" end_link="1112" trav_time="00:05:00" distance="3600.0" vehicleRefId="null">2223 2322 2221 2111 1112</route>
			</leg>
			<activity type="h" link="1112" x="764.0" y="1021.0" >
			</activity>
		</plan>

	</person>

<!-- ====================================================================== -->

	<person id="110">
		<attributes>
			<attribute name="employed" class="java.lang.Boolean">false</attribute>
		</attributes>
		<plan selected="yes">
			<activity type="h" link="1121" x="1447.0" y="917.0" end_time="07:30:26" >
			</activity>
			<leg mode="walk" trav_time="00:08:22">
				<attributes>
					<attribute name="routingMode" class="java.lang.String">pt</attribute>
				</attributes>
				<route type="generic" start_link="1121" end_link="11" trav_time="undefined" distance="NaN"></route>
			</leg>
			<activity type="pt interaction" link="11" x="1050.0" y="1050.0" max_dur="00:00:00" >
			</activity>
			<leg mode="pt" trav_time="00:04:31">
				<attributes>
					<attribute name="routingMode" class="java.lang.String">pt</attribute>
				</attributes>
				<route type="default_pt" start_link="11" end_link="12" trav_time="undefined" distance="NaN">{"transitRouteId":"1to3","boardingTime":"undefined","transitLineId":"Blue Line","accessFacilityId":"1","egressFacilityId":"2a"}</route>
			</leg>
			<activity type="pt interaction" link="12" x="2050.0" y="2940.0" max_dur="00:00:00" >
			</activity>
			<leg mode="walk" trav_time="00:04:16">
				<attributes>
					<attribute name="routingMode" class="java.lang.String">pt</attribute>
				</attributes>
				<route type="generic" start_link="12" end_link="2333" trav_time="undefined" distance="NaN"></route>
			</leg>
			<activity type="w" link="2333" x="2212.0" y="3080.0" end_time="17:59:59" >
			</activity>
			<leg mode="walk" trav_time="00:04:16">
				<attributes>
					<attribute name="routingMode" class="java.lang.String">pt</attribute>
				</attributes>
				<route type="generic" start_link="2333" end_link="12" trav_time="undefined" distance="NaN"></route>
			</leg>
			<activity type="pt interaction" link="12" x="2050.0" y="2940.0" max_dur="00:00:00" >
			</activity>
			<leg mode="pt" trav_time="00:14:44">
				<attributes>
					<attribute name="routingMode" class="java.lang.String">pt</attribute>
				</attributes>
				<route type="default_pt" start_link="12" end_link="33" trav_time="undefined" distance="NaN">{"transitRouteId":"1to3","boardingTime":"undefined","transitLineId":"Blue Line","accessFacilityId":"2a","egressFacilityId":"3"}</route>
			</leg>
			<activity type="pt interaction" link="33" x="3950.0" y="1050.0" max_dur="00:00:00" >
			</activity>
			<leg mode="walk" trav_time="00:10:03">
				<attributes>
					<attribute name="routingMode" class="java.lang.String">pt</attribute>
				</attributes>
				<route type="generic" start_link="33" end_link="3141" trav_time="undefined" distance="NaN"></route>
			</leg>
			<activity type="s" link="3141" x="3760.0" y="584.0" end_time="18:35:17" >
			</activity>
			<leg mode="walk" trav_time="00:10:03">
				<attributes>
					<attribute name="routingMode" class="java.lang.String">pt</attribute>
				</attributes>